20
0F9_3VBT_A
C   -18.500  -35.901    2.047
C   -17.620  -34.958    2.490
N   -16.848  -34.557    1.457
N   -17.327  -35.277    0.284
C   -18.304  -36.090    0.712
C   -18.962  -36.975   -0.092
C   -19.938  -37.810    0.436
C   -20.623  -38.726   -0.346
Cl  -21.786  -39.780    0.439
C   -20.363  -38.860   -1.691
C   -19.387  -38.008   -2.212
C   -18.680  -37.105   -1.440
O   -17.718  -36.235   -1.977
H   -19.177  -36.376    2.609
H   -17.557  -34.618    3.428
H   -16.097  -33.897    1.490
H   -20.153  -37.748    1.411
H   -20.844  -39.527   -2.260
H   -19.190  -38.053   -3.191
H   -17.271  -35.560   -1.390
