61
Ala-Cys-Ala-Met-Ala
N          0.77010        0.27220        6.75930
C          1.01890        1.28930        5.74750
C          2.33460        0.98230        5.01440
O          2.37910        0.91200        3.78570
C          1.01850        2.66320        6.42200
H          1.45410       -0.46560        6.84810
H          0.16680        1.34470        5.07000
H          1.20390        3.43520        5.67520
H          0.05050        2.83770        6.89160
H          1.80090        2.69660        7.18020
N          3.43500        0.79650        5.82610
C          4.76610        0.49650        5.29840
C          4.69450       -0.69940        4.33580
O          5.15210       -0.63040        3.19660
C          5.76080        0.27590        6.45210
S          7.44290       -0.10330        5.88010
H          3.34010        0.86590        6.82920
H          5.18680        1.39240        4.84180
H          5.81540        1.17710        7.06280
H          5.42540       -0.55930        7.06700
H          8.24340       -0.28050        6.93500
N          4.08860       -1.83060        4.84350
C          3.93250       -3.05700        4.07420
C          3.27220       -2.74210        2.72240
O          3.78260       -3.10680        1.66250
C          3.13400       -4.06150        4.90850
H          3.73010       -1.83090        5.78770
H          4.90210       -3.54210        3.96210
H          3.00930       -4.98560        4.34400
H          3.66850       -4.27140        5.83490
H          2.15450       -3.64380        5.14140
N          2.08940       -2.03460        2.79190
C          1.33380       -1.65360        1.60390
C          2.26400       -0.93270        0.61330
O          2.35780       -1.29850       -0.55820
C          0.07690       -0.83780        1.97940
C         -0.83760       -0.35350        0.84170
S         -2.31490        0.60380        1.26820
C         -2.96500        0.88170       -0.39860
H          1.71660       -1.76100        3.68980
H          0.82940       -2.52990        1.19690
H         -0.56690       -1.43700        2.62330
H          0.37530        0.06830        2.50670
H         -0.27210        0.29270        0.17030
H         -1.21410       -1.21280        0.28670
H         -3.88550        1.46230       -0.33800
H         -2.22970        1.42780       -0.98950
H         -3.17170       -0.07760       -0.87310
N          2.96860        0.13340        1.13420
C          3.89500        0.93120        0.34340
C          4.90100        0.00990       -0.36480
O          4.85420       -1.21290       -0.22540
C          4.56740        1.95550        1.26060
H          2.85260        0.38970        2.10420
H          3.33500        1.55290       -0.35520
H          5.26460        2.56060        0.68090
H          3.80870        2.60050        1.70360
H          5.10860        1.43580        2.05120
O          5.82720        0.64200       -1.14130
H          6.37770       -0.04730       -1.51320
H          0.72200        0.70700        7.66970
