36
ARG
C         60.58020       42.61690       88.94890
C         60.68620       43.76080       87.94050
O         59.80810       44.61970       87.89830
N         61.76120       43.74710       87.14940
C         62.00900       44.76590       86.13690
C         63.32690       44.45070       85.40910
O         64.00360       43.46540       85.70430
C         61.95310       46.17910       86.76430
C         62.18810       47.41940       85.87290
C         62.12950       48.80890       86.50800
N         62.37250       49.87700       85.53320
C         63.58720       50.35970       85.21360
N         64.69040       49.90300       85.84500
N         63.66930       51.31050       84.26130
N         63.67160       45.31870       84.44680
C         64.88390       45.18230       83.65260
H         61.44120       41.95700       88.84230
H         60.55790       43.02380       89.95980
H         59.66580       42.05300       88.76450
H         62.44460       43.00890       87.23890
H         61.13810       44.85270       85.48730
H         60.96740       46.34540       87.19900
H         62.71160       46.26190       87.54270
H         63.18120       47.36420       85.42700
H         61.43700       47.44770       85.08340
H         61.14330       48.96830       86.94410
H         62.88750       48.88490       87.28750
H         61.54680       50.25350       85.09000
H         65.59970       50.26870       85.60120
H         64.60600       49.19560       86.56100
H         64.56900       51.68970       84.00260
H         62.83130       51.64350       83.80650
H         63.07870       46.11120       84.24570
H         64.94580       46.00400       82.93910
H         65.75360       45.20580       84.30920
H         64.86140       44.23490       83.11400
