29
HIS
C          9.08260       65.55190       58.82050
C          9.18870       66.69590       57.81210
O          8.31050       67.55470       57.76990
N         10.26240       66.68240       57.02170
C         10.51180       67.70110       56.00810
C         11.82980       67.39340       55.27430
O         12.51220       66.40860       55.56480
C         10.46730       69.08750       56.67690
C         10.70570       70.27870       55.77770
N         11.92330       70.78190       55.55810
C          9.83440       71.05130       55.04800
C         11.81600       71.82920       54.72470
N         10.54640       72.04040       54.38070
N         12.16780       68.26520       54.31400
C         13.37810       68.13610       53.51550
H          9.94360       64.89200       58.71390
H          9.06040       65.95890       59.83140
H          8.16820       64.98800       58.63610
H         10.94600       65.94420       57.11100
H          9.64690       67.77840       55.34930
H          9.48560       69.24450       57.12400
H         11.23180       69.14240       57.45180
H          8.77670       70.83350       55.06340
H         12.69940       72.37310       54.42440
H         10.06040       72.70490       53.79560
H         11.57110       69.05590       54.11710
H         13.43440       68.96010       52.80420
H         14.24980       68.16110       54.16940
H         13.35770       67.19030       52.97410
