642
K2P selectivity pore, chain B including K+
N          2.04400      -22.47500        7.00800
C          1.35000      -23.68500        6.56400
C          1.22400      -23.67000        5.04200
O          1.37200      -22.62600        4.40800
C         -0.03200      -23.83500        7.22400
C         -1.03800      -22.77900        6.76600
O         -2.22500      -22.89000        7.13200
O         -0.65500      -21.83600        6.05300
H          2.16300      -22.49000        8.01000
H          2.94100      -22.41100        6.55000
H          1.47400      -21.68200        6.74200
H          1.97300      -24.53300        6.85100
H          0.06000      -23.78100        8.31000
H         -0.44800      -24.81900        7.00200
N          0.96800      -24.83000        4.45600
C          1.10200      -24.99300        3.00800
C          0.26900      -23.98900        2.21500
O          0.74300      -23.42500        1.22900
C          0.72500      -26.41100        2.58600
C          1.33600      -26.92400        1.26900
C          0.58000      -26.41500        0.04700
C          2.81500      -26.57500        1.15400
H          0.82300      -25.65700        5.01800
H          2.15200      -24.78700        2.81200
H         -0.35800      -26.55000        2.58700
H          1.08500      -27.08600        3.36400
H          1.23900      -28.01100        1.28000
H          0.82700      -27.02200       -0.82400
H         -0.49900      -26.47700        0.18500
H          0.83300      -25.39200       -0.22000
H          3.27300      -27.13600        0.33900
H          2.98200      -25.52000        0.93500
H          3.35800      -26.83100        2.06400
N         -0.97500      -23.78000        2.63600
C         -1.86200      -22.82300        1.98400
C         -1.35900      -21.39200        2.07600
O         -1.44900      -20.63400        1.11600
H         -1.31300      -24.27000        3.45200
H         -2.84200      -22.87800        2.45700
H         -2.00000      -23.10000        0.93800
N         -0.80900      -21.01900        3.22400
C         -0.33600      -19.65000        3.40600
C          0.95300      -19.39800        2.63100
O          1.15600      -18.31500        2.09100
C         -0.11600      -19.33900        4.88000
O         -1.33900      -19.34500        5.59900
H         -0.74200      -21.66100        4.00500
H         -1.09100      -18.95500        3.03100
H          0.27400      -18.32400        4.96900
H          0.64400      -19.97300        5.33500
H         -1.55500      -20.25500        5.76900
N          1.82000      -20.40400        2.56600
C          3.07900      -20.27400        1.84500
C          2.78800      -20.13700        0.36000
O          3.33900      -19.27400       -0.31800
C          3.98000      -21.47000        2.11100
H          1.60800      -21.27900        3.03000
H          3.59600      -19.37600        2.18900
H          4.92400      -21.38200        1.57200
H          4.21500      -21.54900        3.17200
H          3.50800      -22.40700        1.80900
N          1.88300      -20.96500       -0.13900
C          1.44700      -20.83800       -1.51800
C          1.13500      -19.36500       -1.75000
O          1.74400      -18.70300       -2.60400
C          0.20200      -21.70100       -1.74800
C         -0.29800      -21.68800       -3.15900
C          0.30200      -22.48300       -4.13000
C         -1.39300      -20.91300       -3.51600
C         -0.16900      -22.49200       -5.43100
C         -1.86800      -20.91700       -4.81600
C         -1.25400      -21.70500       -5.77400
H          1.45100      -21.66500        0.45000
H          2.25400      -21.15500       -2.18100
H         -0.61300      -21.42000       -1.08500
H          0.43300      -22.73500       -1.48900
H          1.14800      -23.10200       -3.87000
H         -1.88200      -20.29500       -2.77700
H          0.30800      -23.11200       -6.17600
H         -2.71800      -20.30600       -5.08200
H         -1.62500      -21.70900       -6.78800
N          0.20300      -18.85900       -0.94700
C         -0.24200      -17.48000       -1.03500
C          0.93900      -16.53300       -1.03100
O          0.99200      -15.60400       -1.82400
C         -1.16800      -17.16400        0.13700
C         -1.68200      -15.76100        0.14800
C         -1.00100      -14.77300        0.83400
C         -2.86100      -15.42700       -0.51500
C         -1.47700      -13.47300        0.85400
C         -3.34200      -14.12700       -0.49800
C         -2.65200      -13.14900        0.19100
H         -0.23200      -19.45700       -0.25600
H         -0.78900      -17.35600       -1.97100
H         -0.71100      -17.34400        1.10000
H         -2.02400      -17.84000        0.10500
H         -0.08800      -15.00900        1.36100
H         -3.40900      -16.18600       -1.05300
H         -0.93600      -12.71100        1.39500
H         -4.25800      -13.88000       -1.01600
H         -3.03000      -12.13900        0.22100
N          1.89200      -16.77200       -0.14400
C          3.03600      -15.88200       -0.02600
C          3.74800      -15.75900       -1.37200
O          3.92800      -14.65400       -1.87600
C          3.97600      -16.36600        1.08400
C          5.27500      -15.61500        1.16600
C          5.30100      -14.32200        1.63100
C          6.48000      -16.21400        0.79900
C          6.49900      -13.62700        1.73300
C          7.67800      -15.52100        0.87900
C          7.68700      -14.22400        1.35100
H          1.80100      -17.54600        0.50300
H          2.67000      -14.89200        0.25400
H          4.21300      -17.41900        0.96700
H          3.47100      -16.28800        2.04800
H          4.38300      -13.83700        1.92900
H          6.48600      -17.23000        0.43200
H          6.50300      -12.61300        2.10600
H          8.60100      -15.99600        0.58100
H          8.61600      -13.67700        1.42300
N          4.06900      -16.90100       -1.98100
C          4.75100      -16.93900       -3.28200
C          4.02400      -16.06400       -4.30300
O          4.58800      -15.11300       -4.84200
C          4.82300      -18.38000       -3.79000
O          5.37800      -19.23700       -2.79700
H          3.81800      -17.77500       -1.53800
H          5.76500      -16.56100       -3.14400
H          5.44700      -18.43300       -4.68300
H          3.84600      -18.77400       -4.06700
H          4.79400      -19.26300       -2.05400
N          2.74800      -16.36700       -4.51300
C          1.87300      -15.53800       -5.34200
C          2.06400      -14.04400       -5.14500
O          2.02700      -13.27900       -6.10600
H          2.33600      -17.14200       -4.01000
H          0.83900      -15.78700       -5.10300
H          2.02200      -15.79900       -6.39000
N          2.28000      -13.63300       -3.89900
C          2.50400      -12.22400       -3.59300
C          3.78100      -11.72100       -4.23100
O          3.96100      -10.52400       -4.42500
C          2.64100      -11.96200       -2.08300
O          3.79100      -12.65500       -1.57700
C          1.39700      -12.40600       -1.34000
H          2.29900      -14.30400       -3.14200
H          1.66700      -11.63900       -3.97900
H          2.78000      -10.89400       -1.90700
H          3.73500      -13.59200       -1.77100
H          1.37600      -11.94400       -0.35300
H          0.48100      -12.11600       -1.85500
H          1.37900      -13.46500       -1.15800
N          4.67900      -12.64200       -4.53400
C          5.95900      -12.28600       -5.11600
C          5.82900      -12.10700       -6.62500
O          6.12400      -11.04600       -7.15900
C          7.01100      -13.36600       -4.82300
C          7.01700      -13.68000       -3.33000
C          8.38300      -12.91400       -5.28200
C          8.20100      -14.50900       -2.88600
H          4.48000      -13.62600       -4.38300
H          6.31400      -11.34700       -4.68500
H          6.80100      -14.28600       -5.36600
H          6.11600      -14.21000       -3.04100
H          7.00400      -12.75200       -2.76100
H          9.12900      -13.70200       -5.18400
H          8.40800      -12.63700       -6.33600
H          8.72900      -12.05100       -4.71200
H          8.06300      -14.83500       -1.85600
H          8.31200      -15.40500       -3.49700
H          9.13500      -13.94800       -2.91400
N          5.38500      -13.14200       -7.31500
C          5.43000      -13.12500       -8.77100
C          4.48600      -12.06500       -9.33600
O          4.75400      -11.47800      -10.38500
C          5.11300      -14.50400       -9.35600
C          3.69100      -14.93600       -8.99000
C          6.12000      -15.52000       -8.84100
C          3.32200      -16.30800       -9.52700
H          5.13000      -13.99700       -6.83900
H          6.44200      -12.85300       -9.08100
H          5.20300      -14.45400      -10.44200
H          2.95400      -14.25000       -9.40600
H          3.54600      -14.93000       -7.91100
H          6.06000      -16.46000       -9.38900
H          7.14100      -15.15700       -8.96400
H          5.97700      -15.74400       -7.78300
H          2.26500      -16.51100       -9.35600
H          3.50100      -16.37600      -10.60000
H          3.88100      -17.10400       -9.03500
N          3.40100      -11.80900       -8.61400
C          2.50800      -10.69300       -8.90900
C          3.13600       -9.33800       -8.60400
O          2.56900       -8.30700       -8.93800
C          1.25300      -10.77300       -8.04000
O          1.64400      -10.80500       -6.65900
C          0.46500      -12.01300       -8.37800
H          3.23900      -12.33800       -7.76900
H          2.22600      -10.71400       -9.96400
H          0.60600       -9.91400       -8.21400
H          1.93900      -11.68500       -6.45200
H         -0.37800      -12.13500       -7.69700
H          0.05400      -11.93700       -9.38600
H          1.04900      -12.93000       -8.35000
N          4.27100       -9.34500       -7.91500
C          4.89900       -8.12400       -7.37400
C          4.05000       -7.34900       -6.35300
O          4.39500       -6.22100       -5.98300
C          5.34200       -7.14100       -8.47600
O          4.23800       -6.30200       -8.85600
C          5.89500       -7.88500       -9.67700
H          4.71100      -10.22800       -7.68600
H          5.78800       -8.45800       -6.84300
H          6.12500       -6.49400       -8.07600
H          3.52800       -6.87000       -9.13100
H          6.36900       -7.18400      -10.36300
H          6.65800       -8.60500       -9.37800
H          5.13600       -8.41400      -10.25200
N          2.96500       -7.95200       -5.87700
C          2.10800       -7.30300       -4.88300
C          2.84200       -7.07100       -3.56300
O          2.90100       -5.94200       -3.06400
C          0.85200       -8.13900       -4.60700
C         -0.06100       -8.12000       -5.83400
C          0.11600       -7.58800       -3.40500
C         -1.22700       -9.08000       -5.76900
H          2.72600       -8.88300       -6.19100
H          1.80200       -6.32900       -5.26800
H          1.13900       -9.17100       -4.39700
H          0.51000       -8.31000       -6.73900
H         -0.47200       -7.12500       -5.96000
H         -0.83300       -8.09700       -3.25500
H          0.62900       -7.72100       -2.45200
H         -0.12000       -6.53200       -3.53600
H         -1.80200       -9.04200       -6.69500
H         -0.88300      -10.10700       -5.64100
H         -1.91500       -8.86000       -4.95800
N          3.36700       -8.15500       -2.99800
C          4.27500       -8.09400       -1.85000
C          3.68400       -7.50800       -0.56300
O          4.26400       -6.59500        0.03600
H          3.29200       -9.03800       -3.48800
H          5.18500       -7.57500       -2.11500
H          4.58700       -9.11600       -1.63200
N          2.55400       -8.06200       -0.12200
C          1.89000       -7.62500        1.10100
C          2.86400       -7.53300        2.26200
O          3.00200       -6.48000        2.87400
C          0.77800       -8.58800        1.47800
C         -0.43500       -8.50700        0.59000
C         -1.06500       -7.29300        0.34900
C         -0.96200       -9.64600       -0.00500
C         -2.18000       -7.21900       -0.47000
C         -2.08100       -9.57800       -0.80800
C         -2.68700       -8.36600       -1.03100
O         -3.80000       -8.30000       -1.82300
H          2.12500       -8.80100       -0.65800
H          1.49100       -6.62500        0.94100
H          0.42700       -8.38200        2.49100
H          1.15000       -9.61400        1.49600
H         -0.69800       -6.38500        0.80200
H         -0.49800      -10.60600        0.16500
H         -2.65900       -6.26700       -0.64500
H         -2.47300      -10.47500       -1.26300
H         -4.07800       -9.14500       -2.14400
N          3.54500       -8.63500        2.55400
C          4.62400       -8.63500        3.53900
C          4.14600       -8.73500        4.96900
O          4.92500       -8.55200        5.89500
H          3.39000       -9.47400        2.01500
H          5.25300       -7.75000        3.42400
H          5.26600       -9.49200        3.33700
N          2.86400       -9.02500        5.15200
C          2.31200       -9.18300        6.49000
C          2.99300      -10.31000        7.26800
O          2.93500      -10.35500        8.49100
C          0.82000       -9.44600        6.40900
C          0.50100      -10.64400        5.56300
O          1.12200      -10.86200        4.53000
N         -0.48200      -11.41900        5.98200
H          2.26400       -9.19500        4.35700
H          2.46800       -8.25400        7.04100
H          0.31900       -8.58100        5.97100
H          0.40100       -9.56200        7.41000
H         -0.74000      -12.23200        5.44000
H         -0.97300      -11.19700        6.83600
N          3.64700      -11.21500        6.55300
C          4.53800      -12.19700        7.17800
C          5.92000      -12.13400        6.53800
O          6.05900      -12.26100        5.31300
C          4.02100      -13.63500        7.00600
C          4.85800      -14.59900        7.83400
C          2.54600      -13.72600        7.36600
H          3.65200      -11.13900        5.54600
H          4.66900      -11.99900        8.24400
H          6.73500      -11.96000        7.24100
H          4.09900      -13.93600        5.95900
H          4.46200      -15.61200        7.76000
H          5.89600      -14.65000        7.50500
H          4.85300      -14.32700        8.89000
H          2.20100      -14.75900        7.33500
H          2.35600      -13.34600        8.37100
H          1.91700      -13.17000        6.67000
N        -15.03200       -2.71100        6.68900
C        -16.03900       -1.75500        6.25000
C        -16.03700       -1.66500        4.73500
O        -15.07700       -2.06100        4.08100
C        -15.77600       -0.36900        6.84100
O        -14.63400        0.22600        6.26100
H        -14.13600       -2.25600        6.88900
H        -15.31100       -3.14400        7.56800
H        -17.02000       -2.10900        6.56900
H        -15.64000       -0.42600        7.92200
H        -16.63000        0.28700        6.66700
H        -13.87700       -0.27200        6.53900
N        -17.11600       -1.13100        4.17500
C        -17.18400       -0.94100        2.74000
C        -15.86500       -0.33700        2.28700
O        -15.17400       -0.92000        1.46300
C        -18.38900       -0.07100        2.33400
C        -18.43000        1.34900        2.90600
C        -19.78400        2.02200        2.63700
C        -19.78500        3.51200        2.96600
N        -19.60600        3.78000        4.41800
H        -17.89200       -0.83300        4.74700
H        -17.29400       -1.92300        2.27500
H        -19.29500       -0.59700        2.63900
H        -18.43900       -0.01700        1.24500
H        -17.65800        1.96100        2.44100
H        -18.23200        1.33900        3.97900
H        -20.57300        1.51400        3.19300
H        -20.03400        1.90700        1.58200
H        -20.73000        3.95600        2.65300
H        -18.99900        4.02600        2.41100
H        -19.62600        4.77600        4.58300
H        -20.35300        3.34000        4.93700
H        -18.71900        3.40700        4.72500
N        -15.46400        0.76400        2.91500
C        -14.31700        1.54000        2.45700
C        -12.99700        0.79100        2.62500
O        -12.11000        0.86000        1.76600
C        -14.26200        2.87000        3.20000
C        -13.13400        3.82700        2.81200
C        -13.59800        5.27500        2.90600
C        -11.91800        3.60400        3.69700
H        -16.03000        1.14000        3.66100
H        -14.44900        1.74800        1.39200
H        -14.25700        2.70000        4.27900
H        -15.21400        3.36500        3.00600
H        -12.85100        3.65200        1.77300
H        -12.80200        5.96300        2.62000
H        -14.44200        5.46500        2.24100
H        -13.90800        5.52900        3.92000
H        -11.16900        4.37400        3.51100
H        -12.17500        3.66300        4.75600
H        -11.40800        2.65900        3.53500
N        -12.85300        0.07500        3.73000
C        -11.66800       -0.74700        3.91900
C        -11.51000       -1.74400        2.76200
O        -10.41300       -1.91200        2.22400
C        -11.72200       -1.47700        5.26500
C        -11.45900       -0.57800        6.46700
C        -11.72500       -1.26700        7.80100
O        -12.75000       -1.97800        7.92900
O        -10.91200       -1.08600        8.73300
H        -13.59700        0.03500        4.41400
H        -10.79000       -0.09800        3.91700
H        -10.97700       -2.27400        5.27600
H        -12.68500       -1.97900        5.35700
H        -12.07700        0.31700        6.42400
H        -10.43400       -0.21600        6.42900
N        -12.60900       -2.39100        2.37800
C        -12.57200       -3.43900        1.35200
C        -12.15300       -2.90100       -0.01600
O        -11.37800       -3.53700       -0.72800
C        -13.92500       -4.12800        1.25100
H        -13.48700       -2.20300        2.84600
H        -11.83800       -4.18600        1.66000
H        -13.89600       -4.95100        0.53700
H        -14.22200       -4.54300        2.21500
H        -14.71100       -3.44300        0.93300
N        -12.68200       -1.74000       -0.38400
C        -12.34300       -1.13000       -1.65400
C        -10.88700       -0.71700       -1.63100
O        -10.15800       -0.92800       -2.59800
C        -13.19900        0.11000       -1.94000
C        -14.67200       -0.28600       -2.01500
C        -12.78500        0.74500       -3.25600
C        -15.63700        0.88100       -1.95200
H        -13.32700       -1.26500        0.23300
H        -12.49200       -1.86000       -2.45300
H        -13.07400        0.83500       -1.13300
H        -14.93800       -0.94700       -1.19100
H        -14.85800       -0.86700       -2.91900
H        -13.45400        1.55500       -3.54200
H        -11.79500        1.19800       -3.21700
H        -12.78900        0.02100       -4.07200
H        -16.66600        0.52300       -1.92000
H        -15.47200        1.47900       -1.05500
H        -15.55300        1.53800       -2.81700
N        -10.47400       -0.12000       -0.51900
C         -9.07600        0.23200       -0.30800
C         -8.19100       -0.99300       -0.53400
O         -7.21400       -0.92800       -1.26700
C         -8.89100        0.79300        1.10400
C         -7.46100        1.03300        1.53200
C         -6.81600        0.13400        2.35300
C         -6.77800        2.18600        1.16500
C         -5.51400        0.34500        2.76900
C         -5.47400        2.41200        1.58200
C         -4.84600        1.48200        2.38700
O         -3.54400        1.66500        2.82400
H        -11.12800        0.04000        0.23700
H         -8.79400        0.99700       -1.03400
H         -9.35800        0.16800        1.85500
H         -9.42100        1.74400        1.17300
H         -7.32500       -0.76600        2.67000
H         -7.26500        2.91800        0.53700
H         -5.03700       -0.39000        3.39600
H         -4.95500        3.31000        1.28000
H         -3.27300        1.01800        3.47200
N         -8.56900       -2.11400        0.06100
C         -7.81400       -3.35300       -0.08700
C         -7.74700       -3.80100       -1.55100
O         -6.67500       -3.96300       -2.12300
C         -8.45500       -4.45900        0.74400
C         -7.91100       -5.81700        0.44300
C         -6.58400       -6.11300        0.70100
C         -8.70600       -6.78200       -0.14700
C         -6.06100       -7.35300        0.39000
C         -8.19000       -8.02700       -0.45500
C         -6.86400       -8.31200       -0.18800
H         -9.38300       -2.11100        0.66400
H         -6.79400       -3.18700        0.26700
H         -9.53500       -4.47400        0.62000
H         -8.29200       -4.25300        1.80300
H         -5.94200       -5.36600        1.14400
H         -9.74100       -6.56700       -0.37600
H         -5.02400       -7.56900        0.60000
H         -8.82100       -8.77400       -0.91300
H         -6.45700       -9.28100       -0.43400
N         -8.91200       -3.99700       -2.14700
C         -9.00500       -4.37600       -3.54100
C         -8.07700       -3.55700       -4.41800
O         -7.27700       -4.10000       -5.17600
C        -10.44200       -4.21600       -4.04800
C        -10.47700       -4.09200       -5.56400
C        -11.27700       -5.39400       -3.57500
H         -9.77000       -3.84300       -1.63100
H         -8.69600       -5.42000       -3.63000
H        -10.87900       -3.30600       -3.63500
H        -11.50300       -4.19900       -5.91700
H        -10.15500       -3.12100       -5.94200
H         -9.90200       -4.87700       -6.05800
H        -12.32300       -5.27000       -3.85600
H        -10.92700       -6.33000       -4.01100
H        -11.24400       -5.50500       -2.49100
N         -8.19300       -2.24300       -4.33000
C         -7.42700       -1.37900       -5.20500
C         -5.92200       -1.41300       -4.90200
O         -5.09800       -1.55000       -5.82300
C         -8.00600        0.04200       -5.20300
C         -9.16600        0.08200       -6.20500
C         -6.93600        1.07000       -5.53500
C         -9.85000        1.42200       -6.33000
H         -8.85700       -1.83100       -3.68500
H         -7.51000       -1.77000       -6.22200
H         -8.38400        0.28300       -4.20800
H         -9.91500       -0.65300       -5.90600
H         -8.82400       -0.21900       -7.19600
H         -7.35800        2.07100       -5.60300
H         -6.17200        1.16400       -4.76300
H         -6.45100        0.86600       -6.49100
H        -10.75300        1.33200       -6.93500
H        -10.14600        1.80700       -5.35400
H         -9.21700        2.16400       -6.81600
N         -5.56100       -1.33700       -3.62300
C         -4.15700       -1.48700       -3.23000
C         -3.59400       -2.78900       -3.81500
O         -2.41600       -2.87900       -4.19200
C         -4.01100       -1.50600       -1.70000
C         -2.59600       -1.88900       -1.28500
C         -4.37900       -0.15000       -1.11800
H         -6.26100       -1.24100       -2.89800
H         -3.58500       -0.65200       -3.63900
H         -4.69900       -2.24600       -1.28800
H         -2.48300       -1.76300       -0.20800
H         -2.36200       -2.93400       -1.48000
H         -1.84200       -1.25900       -1.75300
H         -4.63000       -0.23700       -0.06100
H         -3.53900        0.54200       -1.19400
H         -5.20600        0.34100       -1.62500
N         -4.45100       -3.79700       -3.88600
C         -4.05600       -5.09000       -4.39100
C         -3.89100       -5.07800       -5.91500
O         -2.86600       -5.51700       -6.44000
C         -5.10100       -6.14300       -3.99600
O         -5.30800       -6.11200       -2.57700
C         -4.65500       -7.51800       -4.41300
H         -5.38800       -3.69400       -3.51600
H         -3.10000       -5.36800       -3.94000
H         -6.06700       -5.96800       -4.45500
H         -4.57500       -6.53800       -2.15600
H         -5.27500       -8.29300       -3.96200
H         -4.74300       -7.65400       -5.49100
H         -3.61200       -7.69700       -4.16500
N         -4.89600       -4.59500       -6.63500
C         -4.88800       -4.73100       -8.08900
C         -3.91300       -3.76400       -8.75500
O         -3.44200       -4.01000       -9.85500
C         -6.29600       -4.56800       -8.65600
C         -7.28900       -5.65000       -8.21700
C         -8.59400       -5.53100       -8.99500
C         -6.69900       -7.03600       -8.37800
H         -5.73000       -4.24800       -6.17500
H         -4.50700       -5.71600       -8.36200
H         -6.23800       -4.57500       -9.74600
H         -6.69100       -3.58600       -8.38600
H         -7.52700       -5.52200       -7.16400
H         -9.32400       -6.26600       -8.65600
H         -9.03900       -4.54500       -8.86200
H         -8.43800       -5.68500      -10.06400
H         -7.46000       -7.80100       -8.22100
H         -6.28800       -7.18700       -9.37800
H         -5.91600       -7.23800       -7.64800
N         -3.59900       -2.67100       -8.07900
C         -2.52000       -1.80100       -8.51700
C         -1.15400       -2.45300       -8.27300
O         -0.12300       -1.95400       -8.73700
C         -2.56800       -0.47700       -7.74500
O         -2.77800       -0.74400       -6.35000
C         -3.69700        0.38600       -8.25600
H         -4.03600       -2.49600       -7.18400
H         -2.60100       -1.59600       -9.58700
H         -1.64100        0.08200       -7.87500
H         -3.66900       -1.05100       -6.22000
H         -3.74900        1.32500       -7.70300
H         -3.55700        0.63500       -9.30800
H         -4.66600       -0.10600       -8.15900
N         -1.16800       -3.56100       -7.53000
C          0.03700       -4.25100       -7.04400
C          0.86600       -3.42300       -6.07000
O          2.04800       -3.69200       -5.86900
C          0.94500       -4.75200       -8.19000
O          1.85900       -3.72200       -8.58800
C          0.11500       -5.20200       -9.36800
H         -2.05900       -3.92300       -7.21600
H         -0.32200       -5.10500       -6.48300
H          1.53500       -5.59600       -7.82900
H          1.34300       -2.97500       -8.86600
H          0.74200       -5.75400      -10.06800
H         -0.68200       -5.87900       -9.05800
H         -0.33000       -4.39000       -9.94100
N          0.24800       -2.43600       -5.43600
C          0.94400       -1.68400       -4.40000
C          1.20200       -2.57800       -3.17100
O          2.30000       -2.57100       -2.60400
C          0.15500       -0.42500       -3.98700
C          0.91300        0.35100       -2.92100
C         -0.09800        0.47100       -5.18600
H         -0.73100       -2.25000       -5.60600
H          1.90600       -1.35300       -4.78900
H         -0.81800       -0.72300       -3.60000
H          0.42200        1.30300       -2.71700
H          0.95700       -0.17500       -1.96700
H          1.93300        0.57500       -3.23500
H         -0.90700        1.17300       -4.98500
H          0.78500        1.06200       -5.42600
H         -0.34600       -0.07700       -6.08800
N          0.18100       -3.33000       -2.76200
C          0.30200       -4.31000       -1.67700
C          0.93400       -3.79400       -0.39200
O          1.99500       -4.26900        0.02800
H         -0.69700       -3.27600       -3.26400
H          0.86100       -5.17300       -2.01900
H         -0.69600       -4.68100       -1.44600
N          0.26500       -2.84900        0.25700
C          0.76100       -2.29900        1.50600
C          0.92000       -3.38000        2.56200
O          1.94200       -3.43800        3.23600
C         -0.18200       -1.22300        2.04000
C         -0.00400        0.11800        1.39700
C          1.26200        0.64600        1.19400
C         -1.10900        0.87600        1.03400
C          1.42500        1.88800        0.61400
C         -0.95200        2.12800        0.46700
C          0.31600        2.63300        0.25600
H         -0.59500       -2.48400       -0.12700
H          1.76500       -1.91600        1.33000
H         -0.01700       -1.06300        3.10700
H         -1.22000       -1.54900        1.94700
H          2.15100        0.11800        1.50000
H         -2.10100        0.47600        1.17400
H          2.41700        2.28800        0.46100
H         -1.82000        2.70600        0.18700
H          0.43700        3.61300       -0.17500
N         -0.10400       -4.20800        2.74100
C         -0.05600       -5.26800        3.75400
C         -0.78800       -4.94900        5.04600
O         -0.87700       -5.80000        5.93200
H         -0.93700       -4.10700        2.18000
H          0.95900       -5.56700        4.01000
H         -0.52400       -6.15200        3.32000
N         -1.28400       -3.72400        5.17900
C         -2.15200       -3.39300        6.30900
C         -3.39200       -4.28800        6.28300
O         -3.84600       -4.73400        7.31900
C         -2.53300       -1.89800        6.32900
C         -2.80900       -1.32400        4.93100
O         -2.93600       -2.11400        3.96000
O         -2.88200       -0.07400        4.80300
H         -1.21800       -3.06100        4.41900
H         -1.61500       -3.60700        7.23600
H         -1.70800       -1.32700        6.75700
H         -3.39500       -1.71500        6.97200
N         -3.89100       -4.59100        5.08600
C         -5.05600       -5.45400        4.91500
C         -4.70200       -6.60900        4.00100
O         -4.12100       -6.41900        2.93200
C         -6.22900       -4.69100        4.30900
C         -6.82300       -3.67000        5.24300
C         -8.03200       -3.90500        5.88900
C         -6.16400       -2.47100        5.49600
C         -8.57500       -2.96900        6.74800
C         -6.70100       -1.53000        6.35100
C         -7.90100       -1.79400        6.97900
O         -8.42900       -0.86900        7.82500
H         -3.47700       -4.16800        4.26500
H         -5.39100       -5.88900        5.85800
H         -4.98800       -7.58900        4.38400
H         -7.01900       -5.38300        4.00900
H         -5.92000       -4.18000        3.39500
H         -8.56300       -4.83000        5.71900
H         -5.24700       -2.25400        4.98300
H         -9.51500       -3.16700        7.24200
H         -6.18100       -0.59900        6.52000
H         -7.89600       -0.09700        7.92400
K          4.34500       -4.41500        2.11000
K          4.24500       -3.94800       -4.35300
K          4.32700       -3.75900       -7.85200
K          4.25100       -4.22900       -1.33000
