124
ALXVTLSXA
N          0.77010        0.27220        6.75930
C          1.01890        1.28930        5.74750
C          2.33460        0.98230        5.01440
O          2.37910        0.91200        3.78570
C          1.01850        2.66320        6.42200
H          1.45410       -0.46560        6.84810
H          0.16680        1.34470        5.07000
H          1.20390        3.43520        5.67520
H          0.05050        2.83770        6.89160
H          1.80090        2.69660        7.18020
N          3.43500        0.79650        5.82610
C          4.76650        0.49810        5.33240
C          4.64370       -0.69740        4.39140
O          5.10450       -0.62670        3.25090
C          5.79030        0.29720        6.48280
C          7.27680       -0.03010        6.19830
C          7.93510        1.01020        5.29510
C          8.05850       -0.17580        7.50380
H          3.34010        0.86590        6.82920
H          5.20290        1.39700        4.89680
H          5.84800        1.20630        7.08140
H          5.47110       -0.53270        7.11320
H          7.35370       -1.02920        5.76920
H          8.97650        0.73710        5.12450
H          7.40920        1.04880        4.34120
H          7.89030        1.98830        5.77400
H          9.10030       -0.40570        7.28030
H          8.00520        0.75660        8.06580
H          7.62820       -0.98230        8.09750
N          4.00470       -1.81010        4.89950
C          3.78950       -3.04270        4.16300
C          3.12410       -2.75160        2.80810
O          3.60980       -3.17090        1.75970
C          2.94640       -3.95080        5.06710
O          2.68980       -5.19530        4.40490
H          3.64990       -1.80080        5.84510
H          4.73900       -3.56370        4.04030
H          3.48540       -4.14210        5.99500
H          1.99870       -3.46150        5.29210
C          1.86520       -6.07600        5.29630
N          1.96750       -2.00090        2.86580
C          1.20340       -1.62980        1.67330
C          2.14900       -0.97610        0.65280
O          2.21580       -1.38120       -0.50700
C         -0.02320       -0.76090        2.05320
C         -0.79020       -0.39730        0.78050
C         -0.97380       -1.48640        3.01540
H          1.61540       -1.68360        3.75770
H          0.65850       -2.49910        1.30520
H          0.31420        0.14230        2.56160
H         -1.65480        0.21410        1.03880
H         -0.13790        0.16190        0.10970
H         -1.12520       -1.30830        0.28470
H         -1.81700       -0.83760        3.25200
H         -1.33930       -2.39980        2.54610
H         -0.44100       -1.73790        3.93250
N          2.89920        0.07780        1.13330
C          3.85130        0.83100        0.33470
C          4.79600       -0.17860       -0.32730
O          4.96630       -0.14870       -1.54870
C          4.58320        1.89570        1.18220
O          3.61630        2.78530        1.75060
C          5.60010        2.71820        0.38130
H          2.80360        0.36830        2.09590
H          3.31350        1.47240       -0.36350
H          5.16250        1.40360        1.96350
H          4.06400        3.45010        2.27900
H          6.07680        3.44630        1.03760
H          6.35770        2.05430       -0.03520
H          5.08940        3.23930       -0.42850
N          5.40990       -1.07990        0.51850
C          6.33430       -2.10740        0.07670
C          5.65050       -2.87870       -1.04910
O          6.22620       -3.02090       -2.12920
C          6.82750       -2.99970        1.24820
C          7.82210       -4.16410        1.01860
C          9.10900       -3.69970        0.34050
C          8.13780       -4.87400        2.33490
H          5.22480       -1.04800        1.51080
H          7.29060       -1.65100       -0.17880
H          7.33770       -2.38130        1.98670
H          5.97430       -3.49220        1.71460
H          7.33490       -4.95040        0.44200
H          9.77450       -4.55160        0.20090
H          8.87180       -3.26180       -0.62910
H          9.60060       -2.95370        0.96500
H          8.83830       -5.68840        2.15020
H          8.58200       -4.16480        3.03340
H          7.21850       -5.27570        2.76120
N          4.39500       -3.37910       -0.77040
C          3.58550       -4.13750       -1.70720
C          3.45670       -3.38420       -3.04090
O          3.73700       -3.92870       -4.10680
C          2.23640       -4.38360       -1.01990
O          1.37610       -5.13120       -1.88820
H          3.98050       -3.22570        0.13780
H          4.02040       -5.12740       -1.84550
H          2.39410       -4.94560       -0.09940
H          1.76770       -3.42780       -0.78570
H          0.53390       -5.28190       -1.45280
N          3.01220       -2.08130       -2.94430
C          2.83130       -1.21810       -4.11150
C          4.11050       -1.20800       -4.96320
O          4.07890       -1.46270       -6.16570
S          2.31910        0.43900       -3.59380
H          2.79690       -1.68690       -2.03970
H          1.94760       -1.53540       -4.66520
N          5.27030       -0.89700       -4.28310
C          6.57440       -0.84030       -4.92830
C          6.82610       -2.14150       -5.70680
O          5.99000       -3.04560       -5.72600
C          7.63820       -0.56800       -3.86210
H          5.23720       -0.69610       -3.29380
H          6.62770        0.04340       -5.56410
H          8.62080       -0.52300       -4.33170
H          7.42670        0.38210       -3.37140
H          7.62570       -1.36880       -3.12280
O          8.02210       -2.21110       -6.35890
H          0.72200        0.70700        7.66970
H         -0.12600       -0.15140        6.56550
H          1.67000       -7.02270        4.79250
H          2.40610       -6.26340        6.22380
H          0.91950       -5.58280        5.52100
H          2.15870        1.21300       -4.67090
