0F9_3VBT_A
frProtoss 02171720243D 1   1.00000     0.00000     0
Protoss
 20 21  0  0  0  0            999 V2000
  -18.5000  -35.9010    2.0470 C   0  0  0  0  0  0  0  0  0  0  0  0
  -17.6200  -34.9580    2.4900 C   0  0  0  0  0  0  0  0  0  0  0  0
  -16.8480  -34.5570    1.4570 N   0  0  0  0  0  0  0  0  0  0  0  0
  -17.3270  -35.2770    0.2840 N   0  0  0  0  0  0  0  0  0  0  0  0
  -18.3040  -36.0900    0.7120 C   0  0  0  0  0  0  0  0  0  0  0  0
  -18.9620  -36.9750   -0.0920 C   0  0  0  0  0  0  0  0  0  0  0  0
  -19.9380  -37.8100    0.4360 C   0  0  0  0  0  0  0  0  0  0  0  0
  -20.6230  -38.7260   -0.3460 C   0  0  0  0  0  0  0  0  0  0  0  0
  -21.7860  -39.7800    0.4390 Cl  0  0  0  0  0  0  0  0  0  0  0  0
  -20.3630  -38.8600   -1.6910 C   0  0  0  0  0  0  0  0  0  0  0  0
  -19.3870  -38.0080   -2.2120 C   0  0  0  0  0  0  0  0  0  0  0  0
  -18.6800  -37.1050   -1.4400 C   0  0  0  0  0  0  0  0  0  0  0  0
  -17.7180  -36.2350   -1.9770 O   0  0  0  0  0  0  0  0  0  0  0  0
  -19.1773  -36.3755    2.6092 H   0  0  0  0  0  0  0  0  0  0  0  0
  -17.5566  -34.6183    3.4284 H   0  0  0  0  0  0  0  0  0  0  0  0
  -16.0972  -33.8974    1.4904 H   0  0  0  0  0  0  0  0  0  0  0  0
  -20.1530  -37.7483    1.4106 H   0  0  0  0  0  0  0  0  0  0  0  0
  -20.8438  -39.5269   -2.2604 H   0  0  0  0  0  0  0  0  0  0  0  0
  -19.1898  -38.0532   -3.1913 H   0  0  0  0  0  0  0  0  0  0  0  0
  -17.2710  -35.5601   -1.3899 H   0  0  0  0  0  0  0  0  0  0  0  0
  1  2  2  0  0  0  0
  1  5  1  0  0  0  0
  2  3  1  0  0  0  0
  3  4  1  0  0  0  0
  4  5  2  0  0  0  0
  5  6  1  0  0  0  0
  6  7  2  0  0  0  0
  6 12  1  0  0  0  0
  7  8  1  0  0  0  0
  8  9  1  0  0  0  0
  8 10  2  0  0  0  0
 10 11  1  0  0  0  0
 11 12  2  0  0  0  0
 12 13  1  0  0  0  0
  1 14  1  0  0  0  0
  2 15  1  0  0  0  0
  3 16  1  0  0  0  0
  7 17  1  0  0  0  0
 10 18  1  0  0  0  0
 11 19  1  0  0  0  0
 13 20  1  0  0  0  0
M  END